Version 4
SHEET 1 1468 680
WIRE 64 48 -48 48
WIRE 128 48 64 48
WIRE 256 48 208 48
WIRE 288 48 256 48
WIRE 432 48 352 48
WIRE 464 48 432 48
WIRE 576 48 528 48
WIRE 656 48 576 48
WIRE 736 48 656 48
WIRE 1216 48 1088 48
WIRE 1088 80 1088 48
WIRE 256 96 256 48
WIRE 64 112 64 48
WIRE 128 112 128 48
WIRE 432 112 432 48
WIRE 576 112 576 48
WIRE 656 112 656 48
WIRE 64 224 64 192
WIRE 128 224 128 176
WIRE 128 224 64 224
WIRE 432 224 432 192
WIRE 432 224 128 224
WIRE 576 224 576 176
WIRE 576 224 432 224
WIRE 656 224 656 192
WIRE 656 224 576 224
WIRE 256 256 256 176
WIRE 400 256 256 256
WIRE 736 272 736 48
WIRE 736 272 544 272
WIRE -48 288 -48 48
WIRE 32 288 -48 288
WIRE 240 288 32 288
WIRE 240 304 240 288
WIRE 400 304 400 256
WIRE 544 304 544 272
WIRE 832 384 832 288
WIRE 32 416 32 288
WIRE 160 416 32 416
WIRE 544 416 544 384
WIRE 544 416 480 416
WIRE 544 448 544 416
FLAG 64 224 0
FLAG 400 528 0
FLAG 240 592 0
FLAG 544 528 0
FLAG 1088 160 0
FLAG 1216 288 0
FLAG 832 464 0
FLAG 576 48 Vout
SYMBOL voltage 64 96 R0
WINDOW 123 0 0 Left 0
WINDOW 39 0 0 Left 0
SYMATTR InstName Vin
SYMATTR Value 28
SYMBOL ind 112 64 R270
WINDOW 0 32 56 VTop 2
WINDOW 3 5 56 VBottom 2
SYMATTR InstName L1
SYMATTR Value 0.25µ
SYMBOL ind 416 96 R0
SYMATTR InstName L2
SYMATTR Value 0.25µ
SYMBOL cap 352 32 R90
WINDOW 0 0 32 VBottom 2
WINDOW 3 32 32 VTop 2
SYMATTR InstName C1
SYMATTR Value 47µ
SYMBOL cap 112 112 R0
SYMATTR InstName C3
SYMATTR Value 10µ
SYMBOL PowerProducts\\LT8330 320 416 R0
SYMATTR InstName U1
SYMBOL cap 224 528 R0
SYMATTR InstName C4
SYMATTR Value 1µ
SYMBOL res 528 288 R0
SYMATTR InstName R2
SYMATTR Value 1400000
SYMBOL res 528 432 R0
SYMATTR InstName R3
SYMATTR Value 100k
SYMBOL ind 816 32 R0
SYMATTR InstName L3
SYMATTR Value 160µ
SYMBOL res 816 112 R0
SYMATTR InstName R1
SYMATTR Value 0.186
SYMBOL h 832 192 R0
WINDOW 123 24 124 Left 2
SYMATTR Value2 0.1264017775
SYMATTR InstName H1
SYMATTR Value V2
SYMBOL h 1088 64 R0
WINDOW 123 24 124 Left 2
SYMATTR Value2 0.0544445645
SYMATTR InstName H2
SYMATTR Value V1
SYMBOL ind 1200 32 R0
SYMATTR InstName L4
SYMATTR Value 0.00000833263114
SYMBOL res 1200 112 R0
SYMATTR InstName R4
SYMATTR Value 0.000545674
SYMBOL voltage 1216 192 R0
WINDOW 123 0 0 Left 0
WINDOW 39 0 0 Left 0
SYMATTR InstName V2
SYMATTR Value 0
SYMBOL voltage 832 368 R0
WINDOW 123 0 0 Left 0
WINDOW 39 0 0 Left 0
SYMATTR InstName V1
SYMATTR Value 0
SYMBOL diode 464 64 R270
WINDOW 0 32 32 VTop 2
WINDOW 3 0 32 VBottom 2
SYMATTR InstName D1
SYMBOL cap 560 112 R0
SYMATTR InstName C2
SYMATTR Value 90µ
SYMBOL voltage 256 80 R0
WINDOW 123 0 0 Left 0
WINDOW 39 0 0 Left 0
SYMATTR InstName V3
SYMATTR Value 0
SYMBOL res 640 96 R0
SYMATTR InstName R5
SYMATTR Value 2
TEXT -64 592 Left 2 !.tran 0 20m 0
TEXT 608 8 Left 2 !.ic V(Vout)=24
